**************************************************
* OpenRAM generated memory.
* Words: 16
* Data bits: 32
* Banks: 1
* Column mux: 1:1
* Trimmed: False
* LVS: True
**************************************************
* Copyright 2020 The SkyWater PDK Authors
*
* Licensed under the Apache License, Version 2.0 (the "License");
* you may not use this file except in compliance with the License.
* You may obtain a copy of the License at
*
*     https://www.apache.org/licenses/LICENSE-2.0
*
* Unless required by applicable law or agreed to in writing, software
* distributed under the License is distributed on an "AS IS" BASIS,
* WITHOUT WARRANTIES OR CONDITIONS OF ANY KIND, either express or implied.
* See the License for the specific language governing permissions and
* limitations under the License.
*
* SPDX-License-Identifier: Apache-2.0

* SPICE3 file created from sky130_fd_bd_sram__openram_dff.ext - technology: EFS8A

.subckt sky130_fd_bd_sram__openram_dff D Q CLK VDD GND
X1000 a_511_725# a_n8_115# VDD VDD sky130_fd_pr__pfet_01v8 W=3u L=0.15u m=1
X1001 a_353_115# CLK a_11_624# GND sky130_fd_pr__nfet_01v8 W=1u L=0.15u m=1
X1002 a_353_725# a_203_89# a_11_624# VDD sky130_fd_pr__pfet_01v8 W=3u L=0.15u m=1
X1003 a_11_624# a_203_89# a_161_115# GND sky130_fd_pr__nfet_01v8 W=1u L=0.15u m=1
X1004 a_11_624# CLK a_161_725# VDD sky130_fd_pr__pfet_01v8 W=3u L=0.15u m=1
X1005 GND Q a_703_115# GND sky130_fd_pr__nfet_01v8 W=1u L=0.15u m=1
X1006 VDD Q a_703_725# VDD sky130_fd_pr__pfet_01v8 W=3u L=0.15u m=1
X1007 a_203_89# CLK GND GND sky130_fd_pr__nfet_01v8 W=1u L=0.15u m=1
X1008 a_203_89# CLK VDD VDD sky130_fd_pr__pfet_01v8 W=3u L=0.15u m=1
X1009 a_161_115# D GND GND sky130_fd_pr__nfet_01v8 W=1u L=0.15u m=1
X1010 a_161_725# D VDD VDD sky130_fd_pr__pfet_01v8 W=3u L=0.15u m=1
X1011 GND a_11_624# a_n8_115# GND sky130_fd_pr__nfet_01v8 W=1u L=0.15u m=1
X1012 a_703_115# a_203_89# ON GND sky130_fd_pr__nfet_01v8 W=1u L=0.15u m=1
X1013 VDD a_11_624# a_n8_115# VDD sky130_fd_pr__pfet_01v8 W=3u L=0.15u m=1
X1014 a_703_725# CLK ON VDD sky130_fd_pr__pfet_01v8 W=3u L=0.15u m=1
X1015 Q ON VDD VDD sky130_fd_pr__pfet_01v8 W=3u L=0.15u m=1
X1016 Q ON GND GND sky130_fd_pr__nfet_01v8 W=1u L=0.15u m=1
X1017 ON a_203_89# a_511_725# VDD sky130_fd_pr__pfet_01v8 W=3u L=0.15u m=1
X1018 ON CLK a_511_115# GND sky130_fd_pr__nfet_01v8 W=1u L=0.15u m=1
X1019 GND a_n8_115# a_353_115# GND sky130_fd_pr__nfet_01v8 W=1u L=0.15u m=1
X1020 VDD a_n8_115# a_353_725# VDD sky130_fd_pr__pfet_01v8 W=3u L=0.15u m=1
X1021 a_511_115# a_n8_115# GND GND sky130_fd_pr__nfet_01v8 W=1u L=0.15u m=1
.ends

.SUBCKT sram_32_16_sky130_spare_wen_dff
+ din_0 dout_0 clk vdd gnd
* INPUT : din_0 
* OUTPUT: dout_0 
* INPUT : clk 
* POWER : vdd 
* GROUND: gnd 
* rows: 1 cols: 1
Xdff_r0_c0
+ din_0 dout_0 CLK VDD GND
+ sky130_fd_bd_sram__openram_dff
.ENDS sram_32_16_sky130_spare_wen_dff

* spice ptx X{0} {1} sky130_fd_pr__pfet_01v8 m=3 w=2.0 l=0.15 pd=4.30 ps=4.30 as=0.75u ad=0.75u

* spice ptx X{0} {1} sky130_fd_pr__nfet_01v8 m=3 w=2.0 l=0.15 pd=4.30 ps=4.30 as=0.75u ad=0.75u

.SUBCKT sram_32_16_sky130_pinv_9
+ A Z vdd gnd
* INPUT : A 
* OUTPUT: Z 
* POWER : vdd 
* GROUND: gnd 
Xpinv_pmos Z A vdd vdd sky130_fd_pr__pfet_01v8 m=3 w=2.0u l=0.15u
Xpinv_nmos Z A gnd gnd sky130_fd_pr__nfet_01v8 m=3 w=2.0u l=0.15u
.ENDS sram_32_16_sky130_pinv_9

* spice ptx X{0} {1} sky130_fd_pr__nfet_01v8 m=1 w=0.36 l=0.15 pd=1.02 ps=1.02 as=0.14u ad=0.14u

* spice ptx X{0} {1} sky130_fd_pr__pfet_01v8 m=1 w=1.12 l=0.15 pd=2.54 ps=2.54 as=0.42u ad=0.42u

.SUBCKT sram_32_16_sky130_pinv_4
+ A Z vdd gnd
* INPUT : A 
* OUTPUT: Z 
* POWER : vdd 
* GROUND: gnd 
Xpinv_pmos Z A vdd vdd sky130_fd_pr__pfet_01v8 m=1 w=1.12u l=0.15u
Xpinv_nmos Z A gnd gnd sky130_fd_pr__nfet_01v8 m=1 w=0.36u l=0.15u
.ENDS sram_32_16_sky130_pinv_4

.SUBCKT sram_32_16_sky130_pdriver_1
+ A Z vdd gnd
* INPUT : A 
* OUTPUT: Z 
* POWER : vdd 
* GROUND: gnd 
* sizes: [1, 5]
Xbuf_inv1
+ A Zb1_int vdd gnd
+ sram_32_16_sky130_pinv_4
Xbuf_inv2
+ Zb1_int Z vdd gnd
+ sram_32_16_sky130_pinv_9
.ENDS sram_32_16_sky130_pdriver_1

* spice ptx X{0} {1} sky130_fd_pr__pfet_01v8 m=6 w=2.0 l=0.15 pd=4.30 ps=4.30 as=0.75u ad=0.75u

* spice ptx X{0} {1} sky130_fd_pr__nfet_01v8 m=6 w=2.0 l=0.15 pd=4.30 ps=4.30 as=0.75u ad=0.75u

.SUBCKT sram_32_16_sky130_pinv_14
+ A Z vdd gnd
* INPUT : A 
* OUTPUT: Z 
* POWER : vdd 
* GROUND: gnd 
Xpinv_pmos Z A vdd vdd sky130_fd_pr__pfet_01v8 m=6 w=2.0u l=0.15u
Xpinv_nmos Z A gnd gnd sky130_fd_pr__nfet_01v8 m=6 w=2.0u l=0.15u
.ENDS sram_32_16_sky130_pinv_14

* spice ptx X{0} {1} sky130_fd_pr__nfet_01v8 m=3 w=1.68 l=0.15 pd=3.66 ps=3.66 as=0.63u ad=0.63u

* spice ptx X{0} {1} sky130_fd_pr__pfet_01v8 m=3 w=1.68 l=0.15 pd=3.66 ps=3.66 as=0.63u ad=0.63u

.SUBCKT sram_32_16_sky130_pinv_13
+ A Z vdd gnd
* INPUT : A 
* OUTPUT: Z 
* POWER : vdd 
* GROUND: gnd 
Xpinv_pmos Z A vdd vdd sky130_fd_pr__pfet_01v8 m=3 w=1.68u l=0.15u
Xpinv_nmos Z A gnd gnd sky130_fd_pr__nfet_01v8 m=3 w=1.68u l=0.15u
.ENDS sram_32_16_sky130_pinv_13

.SUBCKT sram_32_16_sky130_pdriver_4
+ A Z vdd gnd
* INPUT : A 
* OUTPUT: Z 
* POWER : vdd 
* GROUND: gnd 
* sizes: [1, 1, 4, 11]
Xbuf_inv1
+ A Zb1_int vdd gnd
+ sram_32_16_sky130_pinv_4
Xbuf_inv2
+ Zb1_int Zb2_int vdd gnd
+ sram_32_16_sky130_pinv_4
Xbuf_inv3
+ Zb2_int Zb3_int vdd gnd
+ sram_32_16_sky130_pinv_13
Xbuf_inv4
+ Zb3_int Z vdd gnd
+ sram_32_16_sky130_pinv_14
.ENDS sram_32_16_sky130_pdriver_4

.SUBCKT sram_32_16_sky130_pinv_12
+ A Z vdd gnd
* INPUT : A 
* OUTPUT: Z 
* POWER : vdd 
* GROUND: gnd 
Xpinv_pmos Z A vdd vdd sky130_fd_pr__pfet_01v8 m=1 w=1.12u l=0.15u
Xpinv_nmos Z A gnd gnd sky130_fd_pr__nfet_01v8 m=1 w=0.36u l=0.15u
.ENDS sram_32_16_sky130_pinv_12

.SUBCKT sram_32_16_sky130_pinv_15
+ A Z vdd gnd
* INPUT : A 
* OUTPUT: Z 
* POWER : vdd 
* GROUND: gnd 
Xpinv_pmos Z A vdd vdd sky130_fd_pr__pfet_01v8 m=1 w=1.12u l=0.15u
Xpinv_nmos Z A gnd gnd sky130_fd_pr__nfet_01v8 m=1 w=0.36u l=0.15u
.ENDS sram_32_16_sky130_pinv_15

.SUBCKT sram_32_16_sky130_delay_chain
+ in out vdd gnd
* INPUT : in 
* OUTPUT: out 
* POWER : vdd 
* GROUND: gnd 
* fanouts: [4, 4, 4, 4, 4, 4, 4, 4, 4]
Xdinv0
+ in dout_1 vdd gnd
+ sram_32_16_sky130_pinv_15
Xdload_0_0
+ dout_1 n_0_0 vdd gnd
+ sram_32_16_sky130_pinv_15
Xdload_0_1
+ dout_1 n_0_1 vdd gnd
+ sram_32_16_sky130_pinv_15
Xdload_0_2
+ dout_1 n_0_2 vdd gnd
+ sram_32_16_sky130_pinv_15
Xdload_0_3
+ dout_1 n_0_3 vdd gnd
+ sram_32_16_sky130_pinv_15
Xdinv1
+ dout_1 dout_2 vdd gnd
+ sram_32_16_sky130_pinv_15
Xdload_1_0
+ dout_2 n_1_0 vdd gnd
+ sram_32_16_sky130_pinv_15
Xdload_1_1
+ dout_2 n_1_1 vdd gnd
+ sram_32_16_sky130_pinv_15
Xdload_1_2
+ dout_2 n_1_2 vdd gnd
+ sram_32_16_sky130_pinv_15
Xdload_1_3
+ dout_2 n_1_3 vdd gnd
+ sram_32_16_sky130_pinv_15
Xdinv2
+ dout_2 dout_3 vdd gnd
+ sram_32_16_sky130_pinv_15
Xdload_2_0
+ dout_3 n_2_0 vdd gnd
+ sram_32_16_sky130_pinv_15
Xdload_2_1
+ dout_3 n_2_1 vdd gnd
+ sram_32_16_sky130_pinv_15
Xdload_2_2
+ dout_3 n_2_2 vdd gnd
+ sram_32_16_sky130_pinv_15
Xdload_2_3
+ dout_3 n_2_3 vdd gnd
+ sram_32_16_sky130_pinv_15
Xdinv3
+ dout_3 dout_4 vdd gnd
+ sram_32_16_sky130_pinv_15
Xdload_3_0
+ dout_4 n_3_0 vdd gnd
+ sram_32_16_sky130_pinv_15
Xdload_3_1
+ dout_4 n_3_1 vdd gnd
+ sram_32_16_sky130_pinv_15
Xdload_3_2
+ dout_4 n_3_2 vdd gnd
+ sram_32_16_sky130_pinv_15
Xdload_3_3
+ dout_4 n_3_3 vdd gnd
+ sram_32_16_sky130_pinv_15
Xdinv4
+ dout_4 dout_5 vdd gnd
+ sram_32_16_sky130_pinv_15
Xdload_4_0
+ dout_5 n_4_0 vdd gnd
+ sram_32_16_sky130_pinv_15
Xdload_4_1
+ dout_5 n_4_1 vdd gnd
+ sram_32_16_sky130_pinv_15
Xdload_4_2
+ dout_5 n_4_2 vdd gnd
+ sram_32_16_sky130_pinv_15
Xdload_4_3
+ dout_5 n_4_3 vdd gnd
+ sram_32_16_sky130_pinv_15
Xdinv5
+ dout_5 dout_6 vdd gnd
+ sram_32_16_sky130_pinv_15
Xdload_5_0
+ dout_6 n_5_0 vdd gnd
+ sram_32_16_sky130_pinv_15
Xdload_5_1
+ dout_6 n_5_1 vdd gnd
+ sram_32_16_sky130_pinv_15
Xdload_5_2
+ dout_6 n_5_2 vdd gnd
+ sram_32_16_sky130_pinv_15
Xdload_5_3
+ dout_6 n_5_3 vdd gnd
+ sram_32_16_sky130_pinv_15
Xdinv6
+ dout_6 dout_7 vdd gnd
+ sram_32_16_sky130_pinv_15
Xdload_6_0
+ dout_7 n_6_0 vdd gnd
+ sram_32_16_sky130_pinv_15
Xdload_6_1
+ dout_7 n_6_1 vdd gnd
+ sram_32_16_sky130_pinv_15
Xdload_6_2
+ dout_7 n_6_2 vdd gnd
+ sram_32_16_sky130_pinv_15
Xdload_6_3
+ dout_7 n_6_3 vdd gnd
+ sram_32_16_sky130_pinv_15
Xdinv7
+ dout_7 dout_8 vdd gnd
+ sram_32_16_sky130_pinv_15
Xdload_7_0
+ dout_8 n_7_0 vdd gnd
+ sram_32_16_sky130_pinv_15
Xdload_7_1
+ dout_8 n_7_1 vdd gnd
+ sram_32_16_sky130_pinv_15
Xdload_7_2
+ dout_8 n_7_2 vdd gnd
+ sram_32_16_sky130_pinv_15
Xdload_7_3
+ dout_8 n_7_3 vdd gnd
+ sram_32_16_sky130_pinv_15
Xdinv8
+ dout_8 out vdd gnd
+ sram_32_16_sky130_pinv_15
Xdload_8_0
+ out n_8_0 vdd gnd
+ sram_32_16_sky130_pinv_15
Xdload_8_1
+ out n_8_1 vdd gnd
+ sram_32_16_sky130_pinv_15
Xdload_8_2
+ out n_8_2 vdd gnd
+ sram_32_16_sky130_pinv_15
Xdload_8_3
+ out n_8_3 vdd gnd
+ sram_32_16_sky130_pinv_15
.ENDS sram_32_16_sky130_delay_chain

* spice ptx X{0} {1} sky130_fd_pr__nfet_01v8 m=1 w=0.74 l=0.15 pd=1.78 ps=1.78 as=0.28u ad=0.28u

* spice ptx X{0} {1} sky130_fd_pr__pfet_01v8 m=1 w=1.12 l=0.15 pd=2.54 ps=2.54 as=0.42u ad=0.42u

* spice ptx X{0} {1} sky130_fd_pr__nfet_01v8 m=1 w=0.74 l=0.15 pd=1.78 ps=1.78 as=0.28u ad=0.28u

* spice ptx X{0} {1} sky130_fd_pr__nfet_01v8 m=1 w=0.74 l=0.15 pd=1.78 ps=1.78 as=0.28u ad=0.28u

.SUBCKT sram_32_16_sky130_pnand3
+ A B C Z vdd gnd
* INPUT : A 
* INPUT : B 
* INPUT : C 
* OUTPUT: Z 
* POWER : vdd 
* GROUND: gnd 
Xpnand3_pmos1 vdd A Z vdd sky130_fd_pr__pfet_01v8 m=1 w=1.12u l=0.15u
Xpnand3_pmos2 Z B vdd vdd sky130_fd_pr__pfet_01v8 m=1 w=1.12u l=0.15u
Xpnand3_pmos3 Z C vdd vdd sky130_fd_pr__pfet_01v8 m=1 w=1.12u l=0.15u
Xpnand3_nmos1 Z C net1 gnd sky130_fd_pr__nfet_01v8 m=1 w=0.74u l=0.15u
Xpnand3_nmos2 net1 B net2 gnd sky130_fd_pr__nfet_01v8 m=1 w=0.74u l=0.15u
Xpnand3_nmos3 net2 A gnd gnd sky130_fd_pr__nfet_01v8 m=1 w=0.74u l=0.15u
.ENDS sram_32_16_sky130_pnand3

* spice ptx X{0} {1} sky130_fd_pr__nfet_01v8 m=18 w=2.0 l=0.15 pd=4.30 ps=4.30 as=0.75u ad=0.75u

* spice ptx X{0} {1} sky130_fd_pr__pfet_01v8 m=18 w=2.0 l=0.15 pd=4.30 ps=4.30 as=0.75u ad=0.75u

.SUBCKT sram_32_16_sky130_pinv_11
+ A Z vdd gnd
* INPUT : A 
* OUTPUT: Z 
* POWER : vdd 
* GROUND: gnd 
Xpinv_pmos Z A vdd vdd sky130_fd_pr__pfet_01v8 m=18 w=2.0u l=0.15u
Xpinv_nmos Z A gnd gnd sky130_fd_pr__nfet_01v8 m=18 w=2.0u l=0.15u
.ENDS sram_32_16_sky130_pinv_11

.SUBCKT sram_32_16_sky130_pdriver_3
+ A Z vdd gnd
* INPUT : A 
* OUTPUT: Z 
* POWER : vdd 
* GROUND: gnd 
* sizes: [33]
Xbuf_inv1
+ A Z vdd gnd
+ sram_32_16_sky130_pinv_11
.ENDS sram_32_16_sky130_pdriver_3

.SUBCKT sram_32_16_sky130_pand3_0
+ A B C Z vdd gnd
* INPUT : A 
* INPUT : B 
* INPUT : C 
* OUTPUT: Z 
* POWER : vdd 
* GROUND: gnd 
Xpand3_nand
+ A B C zb_int vdd gnd
+ sram_32_16_sky130_pnand3
Xpand3_inv
+ zb_int Z vdd gnd
+ sram_32_16_sky130_pdriver_3
.ENDS sram_32_16_sky130_pand3_0

* spice ptx X{0} {1} sky130_fd_pr__nfet_01v8 m=22 w=2.0 l=0.15 pd=4.30 ps=4.30 as=0.75u ad=0.75u

* spice ptx X{0} {1} sky130_fd_pr__pfet_01v8 m=22 w=2.0 l=0.15 pd=4.30 ps=4.30 as=0.75u ad=0.75u

.SUBCKT sram_32_16_sky130_pinv_10
+ A Z vdd gnd
* INPUT : A 
* OUTPUT: Z 
* POWER : vdd 
* GROUND: gnd 
Xpinv_pmos Z A vdd vdd sky130_fd_pr__pfet_01v8 m=22 w=2.0u l=0.15u
Xpinv_nmos Z A gnd gnd sky130_fd_pr__nfet_01v8 m=22 w=2.0u l=0.15u
.ENDS sram_32_16_sky130_pinv_10

.SUBCKT sram_32_16_sky130_pdriver_2
+ A Z vdd gnd
* INPUT : A 
* OUTPUT: Z 
* POWER : vdd 
* GROUND: gnd 
* sizes: [40]
Xbuf_inv1
+ A Z vdd gnd
+ sram_32_16_sky130_pinv_10
.ENDS sram_32_16_sky130_pdriver_2

.SUBCKT sram_32_16_sky130_pand3
+ A B C Z vdd gnd
* INPUT : A 
* INPUT : B 
* INPUT : C 
* OUTPUT: Z 
* POWER : vdd 
* GROUND: gnd 
Xpand3_nand
+ A B C zb_int vdd gnd
+ sram_32_16_sky130_pnand3
Xpand3_inv
+ zb_int Z vdd gnd
+ sram_32_16_sky130_pdriver_2
.ENDS sram_32_16_sky130_pand3

.SUBCKT sram_32_16_sky130_pnand2_0
+ A B Z vdd gnd
* INPUT : A 
* INPUT : B 
* OUTPUT: Z 
* POWER : vdd 
* GROUND: gnd 
Xpnand2_pmos1 vdd A Z vdd sky130_fd_pr__pfet_01v8 m=1 w=1.12u l=0.15u
Xpnand2_pmos2 Z B vdd vdd sky130_fd_pr__pfet_01v8 m=1 w=1.12u l=0.15u
Xpnand2_nmos1 Z B net1 gnd sky130_fd_pr__nfet_01v8 m=1 w=0.74u l=0.15u
Xpnand2_nmos2 net1 A gnd gnd sky130_fd_pr__nfet_01v8 m=1 w=0.74u l=0.15u
.ENDS sram_32_16_sky130_pnand2_0

.SUBCKT sram_32_16_sky130_pnand2
+ A B Z vdd gnd
* INPUT : A 
* INPUT : B 
* OUTPUT: Z 
* POWER : vdd 
* GROUND: gnd 
Xpnand2_pmos1 vdd A Z vdd sky130_fd_pr__pfet_01v8 m=1 w=1.12u l=0.15u
Xpnand2_pmos2 Z B vdd vdd sky130_fd_pr__pfet_01v8 m=1 w=1.12u l=0.15u
Xpnand2_nmos1 Z B net1 gnd sky130_fd_pr__nfet_01v8 m=1 w=0.74u l=0.15u
Xpnand2_nmos2 net1 A gnd gnd sky130_fd_pr__nfet_01v8 m=1 w=0.74u l=0.15u
.ENDS sram_32_16_sky130_pnand2

* spice ptx X{0} {1} sky130_fd_pr__pfet_01v8 m=7 w=2.0 l=0.15 pd=4.30 ps=4.30 as=0.75u ad=0.75u

* spice ptx X{0} {1} sky130_fd_pr__nfet_01v8 m=7 w=1.68 l=0.15 pd=3.66 ps=3.66 as=0.63u ad=0.63u

.SUBCKT sram_32_16_sky130_pinv_1
+ A Z vdd gnd
* INPUT : A 
* OUTPUT: Z 
* POWER : vdd 
* GROUND: gnd 
Xpinv_pmos Z A vdd vdd sky130_fd_pr__pfet_01v8 m=7 w=2.0u l=0.15u
Xpinv_nmos Z A gnd gnd sky130_fd_pr__nfet_01v8 m=7 w=1.68u l=0.15u
.ENDS sram_32_16_sky130_pinv_1

.SUBCKT sram_32_16_sky130_pdriver
+ A Z vdd gnd
* INPUT : A 
* OUTPUT: Z 
* POWER : vdd 
* GROUND: gnd 
* sizes: [12]
Xbuf_inv1
+ A Z vdd gnd
+ sram_32_16_sky130_pinv_1
.ENDS sram_32_16_sky130_pdriver

.SUBCKT sram_32_16_sky130_pand2
+ A B Z vdd gnd
* INPUT : A 
* INPUT : B 
* OUTPUT: Z 
* POWER : vdd 
* GROUND: gnd 
Xpand2_nand
+ A B zb_int vdd gnd
+ sram_32_16_sky130_pnand2
Xpand2_inv
+ zb_int Z vdd gnd
+ sram_32_16_sky130_pdriver
.ENDS sram_32_16_sky130_pand2

.SUBCKT sram_32_16_sky130_pinv_0
+ A Z vdd gnd
* INPUT : A 
* OUTPUT: Z 
* POWER : vdd 
* GROUND: gnd 
Xpinv_pmos Z A vdd vdd sky130_fd_pr__pfet_01v8 m=3 w=1.68u l=0.15u
Xpinv_nmos Z A gnd gnd sky130_fd_pr__nfet_01v8 m=3 w=1.68u l=0.15u
.ENDS sram_32_16_sky130_pinv_0

* spice ptx X{0} {1} sky130_fd_pr__nfet_01v8 m=2 w=0.74 l=0.15 pd=1.78 ps=1.78 as=0.28u ad=0.28u

* spice ptx X{0} {1} sky130_fd_pr__pfet_01v8 m=2 w=1.26 l=0.15 pd=2.82 ps=2.82 as=0.47u ad=0.47u

.SUBCKT sram_32_16_sky130_pinv
+ A Z vdd gnd
* INPUT : A 
* OUTPUT: Z 
* POWER : vdd 
* GROUND: gnd 
Xpinv_pmos Z A vdd vdd sky130_fd_pr__pfet_01v8 m=2 w=1.26u l=0.15u
Xpinv_nmos Z A gnd gnd sky130_fd_pr__nfet_01v8 m=2 w=0.74u l=0.15u
.ENDS sram_32_16_sky130_pinv

.SUBCKT sram_32_16_sky130_dff_buf_0
+ D Q Qb clk vdd gnd
* INPUT : D 
* OUTPUT: Q 
* OUTPUT: Qb 
* INPUT : clk 
* POWER : vdd 
* GROUND: gnd 
* inv1: 2 inv2: 4
Xdff_buf_dff
+ D qint clk vdd gnd
+ sky130_fd_bd_sram__openram_dff
Xdff_buf_inv1
+ qint Qb vdd gnd
+ sram_32_16_sky130_pinv
Xdff_buf_inv2
+ Qb Q vdd gnd
+ sram_32_16_sky130_pinv_0
.ENDS sram_32_16_sky130_dff_buf_0

.SUBCKT sram_32_16_sky130_dff_buf_array
+ din_0 din_1 dout_0 dout_bar_0 dout_1 dout_bar_1 clk vdd gnd
* INPUT : din_0 
* INPUT : din_1 
* OUTPUT: dout_0 
* OUTPUT: dout_bar_0 
* OUTPUT: dout_1 
* OUTPUT: dout_bar_1 
* INPUT : clk 
* POWER : vdd 
* GROUND: gnd 
* inv1: 2 inv2: 4
Xdff_r0_c0
+ din_0 dout_0 dout_bar_0 clk vdd gnd
+ sram_32_16_sky130_dff_buf_0
Xdff_r1_c0
+ din_1 dout_1 dout_bar_1 clk vdd gnd
+ sram_32_16_sky130_dff_buf_0
.ENDS sram_32_16_sky130_dff_buf_array

.SUBCKT sram_32_16_sky130_pinv_5
+ A Z vdd gnd
* INPUT : A 
* OUTPUT: Z 
* POWER : vdd 
* GROUND: gnd 
Xpinv_pmos Z A vdd vdd sky130_fd_pr__pfet_01v8 m=2 w=1.26u l=0.15u
Xpinv_nmos Z A gnd gnd sky130_fd_pr__nfet_01v8 m=2 w=0.74u l=0.15u
.ENDS sram_32_16_sky130_pinv_5

* spice ptx X{0} {1} sky130_fd_pr__nfet_01v8 m=37 w=2.0 l=0.15 pd=4.30 ps=4.30 as=0.75u ad=0.75u

* spice ptx X{0} {1} sky130_fd_pr__pfet_01v8 m=37 w=2.0 l=0.15 pd=4.30 ps=4.30 as=0.75u ad=0.75u

.SUBCKT sram_32_16_sky130_pinv_8
+ A Z vdd gnd
* INPUT : A 
* OUTPUT: Z 
* POWER : vdd 
* GROUND: gnd 
Xpinv_pmos Z A vdd vdd sky130_fd_pr__pfet_01v8 m=37 w=2.0u l=0.15u
Xpinv_nmos Z A gnd gnd sky130_fd_pr__nfet_01v8 m=37 w=2.0u l=0.15u
.ENDS sram_32_16_sky130_pinv_8

* spice ptx X{0} {1} sky130_fd_pr__pfet_01v8 m=4 w=2.0 l=0.15 pd=4.30 ps=4.30 as=0.75u ad=0.75u

* spice ptx X{0} {1} sky130_fd_pr__nfet_01v8 m=4 w=1.26 l=0.15 pd=2.82 ps=2.82 as=0.47u ad=0.47u

.SUBCKT sram_32_16_sky130_pinv_6
+ A Z vdd gnd
* INPUT : A 
* OUTPUT: Z 
* POWER : vdd 
* GROUND: gnd 
Xpinv_pmos Z A vdd vdd sky130_fd_pr__pfet_01v8 m=4 w=2.0u l=0.15u
Xpinv_nmos Z A gnd gnd sky130_fd_pr__nfet_01v8 m=4 w=1.26u l=0.15u
.ENDS sram_32_16_sky130_pinv_6

* spice ptx X{0} {1} sky130_fd_pr__nfet_01v8 m=12 w=2.0 l=0.15 pd=4.30 ps=4.30 as=0.75u ad=0.75u

* spice ptx X{0} {1} sky130_fd_pr__pfet_01v8 m=12 w=2.0 l=0.15 pd=4.30 ps=4.30 as=0.75u ad=0.75u

.SUBCKT sram_32_16_sky130_pinv_7
+ A Z vdd gnd
* INPUT : A 
* OUTPUT: Z 
* POWER : vdd 
* GROUND: gnd 
Xpinv_pmos Z A vdd vdd sky130_fd_pr__pfet_01v8 m=12 w=2.0u l=0.15u
Xpinv_nmos Z A gnd gnd sky130_fd_pr__nfet_01v8 m=12 w=2.0u l=0.15u
.ENDS sram_32_16_sky130_pinv_7

.SUBCKT sram_32_16_sky130_pdriver_0
+ A Z vdd gnd
* INPUT : A 
* OUTPUT: Z 
* POWER : vdd 
* GROUND: gnd 
* sizes: [1, 1, 2, 7, 22, 67]
Xbuf_inv1
+ A Zb1_int vdd gnd
+ sram_32_16_sky130_pinv_4
Xbuf_inv2
+ Zb1_int Zb2_int vdd gnd
+ sram_32_16_sky130_pinv_4
Xbuf_inv3
+ Zb2_int Zb3_int vdd gnd
+ sram_32_16_sky130_pinv_5
Xbuf_inv4
+ Zb3_int Zb4_int vdd gnd
+ sram_32_16_sky130_pinv_6
Xbuf_inv5
+ Zb4_int Zb5_int vdd gnd
+ sram_32_16_sky130_pinv_7
Xbuf_inv6
+ Zb5_int Z vdd gnd
+ sram_32_16_sky130_pinv_8
.ENDS sram_32_16_sky130_pdriver_0

.SUBCKT sram_32_16_sky130_control_logic_rw
+ csb web clk rbl_bl s_en w_en p_en_bar wl_en clk_buf vdd gnd
* INPUT : csb 
* INPUT : web 
* INPUT : clk 
* INPUT : rbl_bl 
* OUTPUT: s_en 
* OUTPUT: w_en 
* OUTPUT: p_en_bar 
* OUTPUT: wl_en 
* OUTPUT: clk_buf 
* POWER : vdd 
* GROUND: gnd 
* word_size 32
Xctrl_dffs
+ csb web cs_bar cs we_bar we clk_buf vdd gnd
+ sram_32_16_sky130_dff_buf_array
Xclkbuf
+ clk clk_buf vdd gnd
+ sram_32_16_sky130_pdriver_0
Xinv_clk_bar
+ clk_buf clk_bar vdd gnd
+ sram_32_16_sky130_pinv_12
Xand2_gated_clk_bar
+ clk_bar cs gated_clk_bar vdd gnd
+ sram_32_16_sky130_pand2
Xand2_gated_clk_buf
+ clk_buf cs gated_clk_buf vdd gnd
+ sram_32_16_sky130_pand2
Xbuf_wl_en
+ gated_clk_bar wl_en vdd gnd
+ sram_32_16_sky130_pdriver_1
Xrbl_bl_delay_inv
+ rbl_bl_delay rbl_bl_delay_bar vdd gnd
+ sram_32_16_sky130_pinv_12
Xw_en_and
+ we rbl_bl_delay_bar gated_clk_bar w_en vdd gnd
+ sram_32_16_sky130_pand3
Xbuf_s_en_and
+ rbl_bl_delay gated_clk_bar we_bar s_en vdd gnd
+ sram_32_16_sky130_pand3_0
Xdelay_chain
+ rbl_bl rbl_bl_delay vdd gnd
+ sram_32_16_sky130_delay_chain
Xnand_p_en_bar
+ gated_clk_buf rbl_bl_delay p_en_bar_unbuf vdd gnd
+ sram_32_16_sky130_pnand2_0
Xbuf_p_en_bar
+ p_en_bar_unbuf p_en_bar vdd gnd
+ sram_32_16_sky130_pdriver_4
.ENDS sram_32_16_sky130_control_logic_rw

.SUBCKT sram_32_16_sky130_data_dff
+ din_0 din_1 din_2 din_3 din_4 din_5 din_6 din_7 din_8 din_9 din_10
+ din_11 din_12 din_13 din_14 din_15 din_16 din_17 din_18 din_19 din_20
+ din_21 din_22 din_23 din_24 din_25 din_26 din_27 din_28 din_29 din_30
+ din_31 din_32 dout_0 dout_1 dout_2 dout_3 dout_4 dout_5 dout_6 dout_7
+ dout_8 dout_9 dout_10 dout_11 dout_12 dout_13 dout_14 dout_15 dout_16
+ dout_17 dout_18 dout_19 dout_20 dout_21 dout_22 dout_23 dout_24
+ dout_25 dout_26 dout_27 dout_28 dout_29 dout_30 dout_31 dout_32 clk
+ vdd gnd
* INPUT : din_0 
* INPUT : din_1 
* INPUT : din_2 
* INPUT : din_3 
* INPUT : din_4 
* INPUT : din_5 
* INPUT : din_6 
* INPUT : din_7 
* INPUT : din_8 
* INPUT : din_9 
* INPUT : din_10 
* INPUT : din_11 
* INPUT : din_12 
* INPUT : din_13 
* INPUT : din_14 
* INPUT : din_15 
* INPUT : din_16 
* INPUT : din_17 
* INPUT : din_18 
* INPUT : din_19 
* INPUT : din_20 
* INPUT : din_21 
* INPUT : din_22 
* INPUT : din_23 
* INPUT : din_24 
* INPUT : din_25 
* INPUT : din_26 
* INPUT : din_27 
* INPUT : din_28 
* INPUT : din_29 
* INPUT : din_30 
* INPUT : din_31 
* INPUT : din_32 
* OUTPUT: dout_0 
* OUTPUT: dout_1 
* OUTPUT: dout_2 
* OUTPUT: dout_3 
* OUTPUT: dout_4 
* OUTPUT: dout_5 
* OUTPUT: dout_6 
* OUTPUT: dout_7 
* OUTPUT: dout_8 
* OUTPUT: dout_9 
* OUTPUT: dout_10 
* OUTPUT: dout_11 
* OUTPUT: dout_12 
* OUTPUT: dout_13 
* OUTPUT: dout_14 
* OUTPUT: dout_15 
* OUTPUT: dout_16 
* OUTPUT: dout_17 
* OUTPUT: dout_18 
* OUTPUT: dout_19 
* OUTPUT: dout_20 
* OUTPUT: dout_21 
* OUTPUT: dout_22 
* OUTPUT: dout_23 
* OUTPUT: dout_24 
* OUTPUT: dout_25 
* OUTPUT: dout_26 
* OUTPUT: dout_27 
* OUTPUT: dout_28 
* OUTPUT: dout_29 
* OUTPUT: dout_30 
* OUTPUT: dout_31 
* OUTPUT: dout_32 
* INPUT : clk 
* POWER : vdd 
* GROUND: gnd 
* rows: 1 cols: 33
Xdff_r0_c0
+ din_0 dout_0 CLK VDD GND
+ sky130_fd_bd_sram__openram_dff
Xdff_r0_c1
+ din_1 dout_1 CLK VDD GND
+ sky130_fd_bd_sram__openram_dff
Xdff_r0_c2
+ din_2 dout_2 CLK VDD GND
+ sky130_fd_bd_sram__openram_dff
Xdff_r0_c3
+ din_3 dout_3 CLK VDD GND
+ sky130_fd_bd_sram__openram_dff
Xdff_r0_c4
+ din_4 dout_4 CLK VDD GND
+ sky130_fd_bd_sram__openram_dff
Xdff_r0_c5
+ din_5 dout_5 CLK VDD GND
+ sky130_fd_bd_sram__openram_dff
Xdff_r0_c6
+ din_6 dout_6 CLK VDD GND
+ sky130_fd_bd_sram__openram_dff
Xdff_r0_c7
+ din_7 dout_7 CLK VDD GND
+ sky130_fd_bd_sram__openram_dff
Xdff_r0_c8
+ din_8 dout_8 CLK VDD GND
+ sky130_fd_bd_sram__openram_dff
Xdff_r0_c9
+ din_9 dout_9 CLK VDD GND
+ sky130_fd_bd_sram__openram_dff
Xdff_r0_c10
+ din_10 dout_10 CLK VDD GND
+ sky130_fd_bd_sram__openram_dff
Xdff_r0_c11
+ din_11 dout_11 CLK VDD GND
+ sky130_fd_bd_sram__openram_dff
Xdff_r0_c12
+ din_12 dout_12 CLK VDD GND
+ sky130_fd_bd_sram__openram_dff
Xdff_r0_c13
+ din_13 dout_13 CLK VDD GND
+ sky130_fd_bd_sram__openram_dff
Xdff_r0_c14
+ din_14 dout_14 CLK VDD GND
+ sky130_fd_bd_sram__openram_dff
Xdff_r0_c15
+ din_15 dout_15 CLK VDD GND
+ sky130_fd_bd_sram__openram_dff
Xdff_r0_c16
+ din_16 dout_16 CLK VDD GND
+ sky130_fd_bd_sram__openram_dff
Xdff_r0_c17
+ din_17 dout_17 CLK VDD GND
+ sky130_fd_bd_sram__openram_dff
Xdff_r0_c18
+ din_18 dout_18 CLK VDD GND
+ sky130_fd_bd_sram__openram_dff
Xdff_r0_c19
+ din_19 dout_19 CLK VDD GND
+ sky130_fd_bd_sram__openram_dff
Xdff_r0_c20
+ din_20 dout_20 CLK VDD GND
+ sky130_fd_bd_sram__openram_dff
Xdff_r0_c21
+ din_21 dout_21 CLK VDD GND
+ sky130_fd_bd_sram__openram_dff
Xdff_r0_c22
+ din_22 dout_22 CLK VDD GND
+ sky130_fd_bd_sram__openram_dff
Xdff_r0_c23
+ din_23 dout_23 CLK VDD GND
+ sky130_fd_bd_sram__openram_dff
Xdff_r0_c24
+ din_24 dout_24 CLK VDD GND
+ sky130_fd_bd_sram__openram_dff
Xdff_r0_c25
+ din_25 dout_25 CLK VDD GND
+ sky130_fd_bd_sram__openram_dff
Xdff_r0_c26
+ din_26 dout_26 CLK VDD GND
+ sky130_fd_bd_sram__openram_dff
Xdff_r0_c27
+ din_27 dout_27 CLK VDD GND
+ sky130_fd_bd_sram__openram_dff
Xdff_r0_c28
+ din_28 dout_28 CLK VDD GND
+ sky130_fd_bd_sram__openram_dff
Xdff_r0_c29
+ din_29 dout_29 CLK VDD GND
+ sky130_fd_bd_sram__openram_dff
Xdff_r0_c30
+ din_30 dout_30 CLK VDD GND
+ sky130_fd_bd_sram__openram_dff
Xdff_r0_c31
+ din_31 dout_31 CLK VDD GND
+ sky130_fd_bd_sram__openram_dff
Xdff_r0_c32
+ din_32 dout_32 CLK VDD GND
+ sky130_fd_bd_sram__openram_dff
.ENDS sram_32_16_sky130_data_dff
* Copyright 2020 The SkyWater PDK Authors
*
* Licensed under the Apache License, Version 2.0 (the "License");
* you may not use this file except in compliance with the License.
* You may obtain a copy of the License at
*
*     https://www.apache.org/licenses/LICENSE-2.0
*
* Unless required by applicable law or agreed to in writing, software
* distributed under the License is distributed on an "AS IS" BASIS,
* WITHOUT WARRANTIES OR CONDITIONS OF ANY KIND, either express or implied.
* See the License for the specific language governing permissions and
* limitations under the License.
*
* SPDX-License-Identifier: Apache-2.0

*********************** "sky130_fd_bd_sram__openram_sense_amp" ******************************

.SUBCKT sky130_fd_bd_sram__openram_sense_amp BL BR DOUT EN VDD GND
X1000 GND EN a_56_432# GND sky130_fd_pr__nfet_01v8 W=0.65u L=0.15u m=1
X1001 a_56_432# dint_bar dint GND sky130_fd_pr__nfet_01v8 W=0.65u L=0.15u m=1
X1002 dint_bar dint a_56_432# GND sky130_fd_pr__nfet_01v8 W=0.65u L=0.15u m=1

X1003 VDD dint_bar dint VDD sky130_fd_pr__pfet_01v8 W=1.26u L=0.15u m=1
X1004 dint_bar dint VDD VDD sky130_fd_pr__pfet_01v8 W=1.26u L=0.15u m=1

X1005 BL EN dint VDD sky130_fd_pr__pfet_01v8 W=2u L=0.15u m=1
X1006 dint_bar EN BR VDD sky130_fd_pr__pfet_01v8 W=2u L=0.15u m=1

X1007 VDD dint_bar DOUT VDD sky130_fd_pr__pfet_01v8 W=1.26u L=0.15u m=1
X1008 DOUT dint_bar GND GND sky130_fd_pr__nfet_01v8 W=0.65u L=0.15u m=1

.ENDS sky130_fd_bd_sram__openram_sense_amp

.SUBCKT sram_32_16_sky130_sense_amp_array
+ data_0 bl_0 br_0 data_1 bl_1 br_1 data_2 bl_2 br_2 data_3 bl_3 br_3
+ data_4 bl_4 br_4 data_5 bl_5 br_5 data_6 bl_6 br_6 data_7 bl_7 br_7
+ data_8 bl_8 br_8 data_9 bl_9 br_9 data_10 bl_10 br_10 data_11 bl_11
+ br_11 data_12 bl_12 br_12 data_13 bl_13 br_13 data_14 bl_14 br_14
+ data_15 bl_15 br_15 data_16 bl_16 br_16 data_17 bl_17 br_17 data_18
+ bl_18 br_18 data_19 bl_19 br_19 data_20 bl_20 br_20 data_21 bl_21
+ br_21 data_22 bl_22 br_22 data_23 bl_23 br_23 data_24 bl_24 br_24
+ data_25 bl_25 br_25 data_26 bl_26 br_26 data_27 bl_27 br_27 data_28
+ bl_28 br_28 data_29 bl_29 br_29 data_30 bl_30 br_30 data_31 bl_31
+ br_31 data_32 bl_32 br_32 en vdd gnd
* OUTPUT: data_0 
* INPUT : bl_0 
* INPUT : br_0 
* OUTPUT: data_1 
* INPUT : bl_1 
* INPUT : br_1 
* OUTPUT: data_2 
* INPUT : bl_2 
* INPUT : br_2 
* OUTPUT: data_3 
* INPUT : bl_3 
* INPUT : br_3 
* OUTPUT: data_4 
* INPUT : bl_4 
* INPUT : br_4 
* OUTPUT: data_5 
* INPUT : bl_5 
* INPUT : br_5 
* OUTPUT: data_6 
* INPUT : bl_6 
* INPUT : br_6 
* OUTPUT: data_7 
* INPUT : bl_7 
* INPUT : br_7 
* OUTPUT: data_8 
* INPUT : bl_8 
* INPUT : br_8 
* OUTPUT: data_9 
* INPUT : bl_9 
* INPUT : br_9 
* OUTPUT: data_10 
* INPUT : bl_10 
* INPUT : br_10 
* OUTPUT: data_11 
* INPUT : bl_11 
* INPUT : br_11 
* OUTPUT: data_12 
* INPUT : bl_12 
* INPUT : br_12 
* OUTPUT: data_13 
* INPUT : bl_13 
* INPUT : br_13 
* OUTPUT: data_14 
* INPUT : bl_14 
* INPUT : br_14 
* OUTPUT: data_15 
* INPUT : bl_15 
* INPUT : br_15 
* OUTPUT: data_16 
* INPUT : bl_16 
* INPUT : br_16 
* OUTPUT: data_17 
* INPUT : bl_17 
* INPUT : br_17 
* OUTPUT: data_18 
* INPUT : bl_18 
* INPUT : br_18 
* OUTPUT: data_19 
* INPUT : bl_19 
* INPUT : br_19 
* OUTPUT: data_20 
* INPUT : bl_20 
* INPUT : br_20 
* OUTPUT: data_21 
* INPUT : bl_21 
* INPUT : br_21 
* OUTPUT: data_22 
* INPUT : bl_22 
* INPUT : br_22 
* OUTPUT: data_23 
* INPUT : bl_23 
* INPUT : br_23 
* OUTPUT: data_24 
* INPUT : bl_24 
* INPUT : br_24 
* OUTPUT: data_25 
* INPUT : bl_25 
* INPUT : br_25 
* OUTPUT: data_26 
* INPUT : bl_26 
* INPUT : br_26 
* OUTPUT: data_27 
* INPUT : bl_27 
* INPUT : br_27 
* OUTPUT: data_28 
* INPUT : bl_28 
* INPUT : br_28 
* OUTPUT: data_29 
* INPUT : bl_29 
* INPUT : br_29 
* OUTPUT: data_30 
* INPUT : bl_30 
* INPUT : br_30 
* OUTPUT: data_31 
* INPUT : bl_31 
* INPUT : br_31 
* OUTPUT: data_32 
* INPUT : bl_32 
* INPUT : br_32 
* INPUT : en 
* POWER : vdd 
* GROUND: gnd 
* words_per_row: 1
Xsa_d0
+ bl_0 br_0 data_0 en vdd gnd
+ sky130_fd_bd_sram__openram_sense_amp
Xsa_d1
+ bl_1 br_1 data_1 en vdd gnd
+ sky130_fd_bd_sram__openram_sense_amp
Xsa_d2
+ bl_2 br_2 data_2 en vdd gnd
+ sky130_fd_bd_sram__openram_sense_amp
Xsa_d3
+ bl_3 br_3 data_3 en vdd gnd
+ sky130_fd_bd_sram__openram_sense_amp
Xsa_d4
+ bl_4 br_4 data_4 en vdd gnd
+ sky130_fd_bd_sram__openram_sense_amp
Xsa_d5
+ bl_5 br_5 data_5 en vdd gnd
+ sky130_fd_bd_sram__openram_sense_amp
Xsa_d6
+ bl_6 br_6 data_6 en vdd gnd
+ sky130_fd_bd_sram__openram_sense_amp
Xsa_d7
+ bl_7 br_7 data_7 en vdd gnd
+ sky130_fd_bd_sram__openram_sense_amp
Xsa_d8
+ bl_8 br_8 data_8 en vdd gnd
+ sky130_fd_bd_sram__openram_sense_amp
Xsa_d9
+ bl_9 br_9 data_9 en vdd gnd
+ sky130_fd_bd_sram__openram_sense_amp
Xsa_d10
+ bl_10 br_10 data_10 en vdd gnd
+ sky130_fd_bd_sram__openram_sense_amp
Xsa_d11
+ bl_11 br_11 data_11 en vdd gnd
+ sky130_fd_bd_sram__openram_sense_amp
Xsa_d12
+ bl_12 br_12 data_12 en vdd gnd
+ sky130_fd_bd_sram__openram_sense_amp
Xsa_d13
+ bl_13 br_13 data_13 en vdd gnd
+ sky130_fd_bd_sram__openram_sense_amp
Xsa_d14
+ bl_14 br_14 data_14 en vdd gnd
+ sky130_fd_bd_sram__openram_sense_amp
Xsa_d15
+ bl_15 br_15 data_15 en vdd gnd
+ sky130_fd_bd_sram__openram_sense_amp
Xsa_d16
+ bl_16 br_16 data_16 en vdd gnd
+ sky130_fd_bd_sram__openram_sense_amp
Xsa_d17
+ bl_17 br_17 data_17 en vdd gnd
+ sky130_fd_bd_sram__openram_sense_amp
Xsa_d18
+ bl_18 br_18 data_18 en vdd gnd
+ sky130_fd_bd_sram__openram_sense_amp
Xsa_d19
+ bl_19 br_19 data_19 en vdd gnd
+ sky130_fd_bd_sram__openram_sense_amp
Xsa_d20
+ bl_20 br_20 data_20 en vdd gnd
+ sky130_fd_bd_sram__openram_sense_amp
Xsa_d21
+ bl_21 br_21 data_21 en vdd gnd
+ sky130_fd_bd_sram__openram_sense_amp
Xsa_d22
+ bl_22 br_22 data_22 en vdd gnd
+ sky130_fd_bd_sram__openram_sense_amp
Xsa_d23
+ bl_23 br_23 data_23 en vdd gnd
+ sky130_fd_bd_sram__openram_sense_amp
Xsa_d24
+ bl_24 br_24 data_24 en vdd gnd
+ sky130_fd_bd_sram__openram_sense_amp
Xsa_d25
+ bl_25 br_25 data_25 en vdd gnd
+ sky130_fd_bd_sram__openram_sense_amp
Xsa_d26
+ bl_26 br_26 data_26 en vdd gnd
+ sky130_fd_bd_sram__openram_sense_amp
Xsa_d27
+ bl_27 br_27 data_27 en vdd gnd
+ sky130_fd_bd_sram__openram_sense_amp
Xsa_d28
+ bl_28 br_28 data_28 en vdd gnd
+ sky130_fd_bd_sram__openram_sense_amp
Xsa_d29
+ bl_29 br_29 data_29 en vdd gnd
+ sky130_fd_bd_sram__openram_sense_amp
Xsa_d30
+ bl_30 br_30 data_30 en vdd gnd
+ sky130_fd_bd_sram__openram_sense_amp
Xsa_d31
+ bl_31 br_31 data_31 en vdd gnd
+ sky130_fd_bd_sram__openram_sense_amp
Xsa_d32
+ bl_32 br_32 data_32 en vdd gnd
+ sky130_fd_bd_sram__openram_sense_amp
.ENDS sram_32_16_sky130_sense_amp_array
* Copyright 2020 The SkyWater PDK Authors
*
* Licensed under the Apache License, Version 2.0 (the "License");
* you may not use this file except in compliance with the License.
* You may obtain a copy of the License at
*
*     https://www.apache.org/licenses/LICENSE-2.0
*
* Unless required by applicable law or agreed to in writing, software
* distributed under the License is distributed on an "AS IS" BASIS,
* WITHOUT WARRANTIES OR CONDITIONS OF ANY KIND, either express or implied.